Version 4
SHEET 1 3680 2872
WIRE 1152 -96 1120 -96
WIRE 1264 -96 1152 -96
WIRE 1376 -96 1264 -96
WIRE 1488 -96 1376 -96
WIRE 1616 -96 1488 -96
WIRE 1152 -64 1152 -96
WIRE 800 0 736 0
WIRE 1120 0 1120 -96
WIRE 1120 0 1088 0
WIRE 1264 16 1264 -96
WIRE 1616 32 1616 -96
WIRE 1152 48 1152 16
WIRE -16 96 -112 96
WIRE 336 96 48 96
WIRE 544 96 336 96
WIRE 736 96 736 0
WIRE 736 96 544 96
WIRE 800 96 736 96
WIRE 1104 96 1088 96
WIRE 1264 96 1264 80
WIRE 1264 96 1104 96
WIRE 544 112 544 96
WIRE 1152 160 1152 128
WIRE 1376 160 1376 -96
WIRE 1488 160 1488 -96
WIRE 336 176 336 96
WIRE 736 176 736 96
WIRE -112 272 -112 96
WIRE -32 272 -112 272
WIRE 112 272 48 272
WIRE 336 272 336 240
WIRE 336 272 112 272
WIRE 544 272 544 256
WIRE 544 272 336 272
WIRE 736 272 736 240
WIRE 736 272 544 272
WIRE 944 272 944 160
WIRE 944 272 736 272
WIRE 1152 272 1152 240
WIRE 1152 272 944 272
WIRE 1376 272 1376 224
WIRE 1376 272 1152 272
WIRE 1488 272 1488 224
WIRE 1488 272 1376 272
WIRE 1616 272 1616 112
WIRE 1616 272 1488 272
WIRE 1680 272 1616 272
WIRE 1680 304 1680 272
WIRE 1376 320 1376 272
WIRE 1488 320 1488 272
WIRE 544 336 544 272
WIRE -112 368 -112 272
WIRE -16 368 -112 368
WIRE 112 368 112 272
WIRE 112 368 48 368
WIRE 336 400 336 272
WIRE 736 400 736 272
WIRE 1152 400 1152 272
WIRE 544 432 544 400
WIRE 1616 480 1616 272
WIRE 944 496 944 272
WIRE 1152 512 1152 480
WIRE -112 560 -112 368
WIRE -16 560 -112 560
WIRE 336 560 336 464
WIRE 336 560 48 560
WIRE 544 560 544 512
WIRE 544 560 336 560
WIRE 736 560 736 464
WIRE 736 560 544 560
WIRE 800 560 736 560
WIRE 1104 560 1088 560
WIRE 1264 560 1104 560
WIRE 1264 576 1264 560
WIRE 1152 624 1152 592
WIRE 736 672 736 560
WIRE 800 672 736 672
WIRE 1120 672 1088 672
WIRE 1120 736 1120 672
WIRE 1152 736 1152 704
WIRE 1152 736 1120 736
WIRE 1264 736 1264 640
WIRE 1264 736 1152 736
WIRE 1376 736 1376 384
WIRE 1376 736 1264 736
WIRE 1488 736 1488 384
WIRE 1488 736 1376 736
WIRE 1616 736 1616 560
WIRE 1616 736 1488 736
FLAG 1680 304 0
SYMBOL voltage -48 272 R270
WINDOW 0 32 56 VTop 2
WINDOW 3 -32 56 VBottom 2
SYMATTR InstName V1
SYMATTR Value SINE(0 20.640446942835322 60)
SYMATTR SpiceLine Rser=3.8
SYMBOL schottky -16 112 R270
WINDOW 0 32 32 VTop 2
WINDOW 3 0 32 VBottom 2
SYMATTR InstName D1
SYMATTR Value 1N5819
SYMATTR Description Diode
SYMATTR Type diode
SYMBOL schottky 48 544 R90
WINDOW 0 0 32 VBottom 2
WINDOW 3 32 32 VTop 2
SYMATTR InstName D2
SYMATTR Value 1N5819
SYMATTR Description Diode
SYMATTR Type diode
SYMBOL polcap 320 176 R0
WINDOW 3 24 56 Left 2
SYMATTR Value 3.3m
SYMATTR InstName C4
SYMATTR Description Capacitor
SYMATTR Type cap
SYMATTR SpiceLine V=332MRH Rser=23m Lser=0 mfg="Nichicon" pn="UPL1E332MRH6" type="Al electrolytic"
SYMBOL PowerProducts/LT1963A 944 48 R0
WINDOW 0 0 35 Center 2
WINDOW 3 -45 -36 Left 2
SYMATTR InstName U1
SYMBOL PowerProducts/LT3015 944 608 M180
SYMATTR InstName U2
SYMBOL res 1136 384 R0
SYMATTR InstName R1
SYMATTR Value 5.1k
SYMBOL res 1136 608 R0
SYMATTR InstName R2
SYMATTR Value 47k
SYMBOL res 1136 144 R0
SYMATTR InstName R3
SYMATTR Value 5.1k
SYMBOL res 1136 -80 R0
SYMATTR InstName R4
SYMATTR Value 47k
SYMBOL cap 720 400 R0
SYMATTR InstName C5
SYMATTR Value 100n
SYMBOL cap 720 176 R0
SYMATTR InstName C6
SYMATTR Value 100n
SYMBOL cap 1248 576 R0
SYMATTR InstName C7
SYMATTR Value 100n
SYMBOL cap 1248 16 R0
SYMATTR InstName C8
SYMATTR Value 100n
SYMBOL cap 1360 160 R0
SYMATTR InstName C9
SYMATTR Value 100n
SYMBOL cap 1360 320 R0
SYMATTR InstName C10
SYMATTR Value 100n
SYMBOL cap 1472 320 R0
SYMATTR InstName C11
SYMATTR Value 220µ
SYMBOL cap 1472 160 R0
SYMATTR InstName C12
SYMATTR Value 220µ
SYMBOL cap 48 352 R90
WINDOW 0 0 32 VBottom 2
WINDOW 3 32 32 VTop 2
SYMATTR InstName C13
SYMATTR Value 47n
SYMBOL potentiometer 1168 496 M0
WINDOW 3 -243 40 Left 2
SYMATTR Value Rtot=500 wiper=0.45
SYMATTR InstName U3
SYMBOL potentiometer 1168 32 M0
WINDOW 3 -217 87 Left 2
SYMATTR Value Rtot=500 wiper=0.52
SYMATTR InstName U4
SYMBOL res 1600 16 R0
SYMATTR InstName R9
SYMATTR Value 120
SYMBOL res 1600 464 R0
SYMATTR InstName R10
SYMATTR Value 120
SYMBOL polcap 320 400 R0
WINDOW 3 24 56 Left 2
SYMATTR Value 3.3m
SYMATTR InstName C1
SYMATTR Description Capacitor
SYMATTR Type cap
SYMATTR SpiceLine V=332MRH Rser=23m Lser=0 mfg="Nichicon" pn="UPL1E332MRH6" type="Al electrolytic"
SYMBOL zener 560 256 R180
WINDOW 0 24 64 Left 2
WINDOW 3 24 0 Left 2
SYMATTR InstName D4
SYMATTR Value BZX84C18VLY
SYMATTR Description Diode
SYMATTR Type diode
SYMBOL zener 560 400 R180
WINDOW 0 24 64 Left 2
WINDOW 3 24 0 Left 2
SYMATTR InstName D5
SYMATTR Value BZX84C18VLY
SYMATTR Description Diode
SYMATTR Type diode
SYMBOL res 528 96 R0
SYMATTR InstName R6
SYMATTR Value 100
SYMBOL res 528 416 R0
SYMATTR InstName R5
SYMATTR Value 100
TEXT 360 -168 Left 2 !.tran 0 10s\n;.ac oct 12 15 10Meg
TEXT -280 272 Left 2 ;WAU12-500
