Version 4
SHEET 1 3680 2872
WIRE 960 -96 928 -96
WIRE 1072 -96 960 -96
WIRE 1184 -96 1072 -96
WIRE 1296 -96 1184 -96
WIRE 1424 -96 1296 -96
WIRE 960 -64 960 -96
WIRE 608 0 544 0
WIRE 928 0 928 -96
WIRE 928 0 896 0
WIRE 1072 16 1072 -96
WIRE 1424 32 1424 -96
WIRE 960 48 960 16
WIRE -16 96 -112 96
WIRE 336 96 48 96
WIRE 480 96 336 96
WIRE 544 96 544 0
WIRE 544 96 480 96
WIRE 608 96 544 96
WIRE 912 96 896 96
WIRE 1072 96 1072 80
WIRE 1072 96 912 96
WIRE 960 160 960 128
WIRE 1184 160 1184 -96
WIRE 1296 160 1296 -96
WIRE 336 176 336 96
WIRE 480 176 480 96
WIRE -112 272 -112 96
WIRE -32 272 -112 272
WIRE 112 272 48 272
WIRE 336 272 336 240
WIRE 336 272 112 272
WIRE 480 272 480 240
WIRE 480 272 336 272
WIRE 752 272 752 160
WIRE 752 272 480 272
WIRE 960 272 960 240
WIRE 960 272 752 272
WIRE 1184 272 1184 224
WIRE 1184 272 960 272
WIRE 1296 272 1296 224
WIRE 1296 272 1184 272
WIRE 1424 272 1424 112
WIRE 1424 272 1296 272
WIRE 1488 272 1424 272
WIRE 1488 304 1488 272
WIRE 1184 320 1184 272
WIRE 1296 320 1296 272
WIRE -112 368 -112 272
WIRE -16 368 -112 368
WIRE 112 368 112 272
WIRE 112 368 48 368
WIRE 336 400 336 272
WIRE 480 400 480 272
WIRE 960 400 960 272
WIRE 1424 480 1424 272
WIRE 752 496 752 272
WIRE 960 512 960 480
WIRE -112 560 -112 368
WIRE -16 560 -112 560
WIRE 336 560 336 464
WIRE 336 560 48 560
WIRE 480 560 480 464
WIRE 480 560 336 560
WIRE 544 560 480 560
WIRE 608 560 544 560
WIRE 912 560 896 560
WIRE 1072 560 912 560
WIRE 1072 576 1072 560
WIRE 960 624 960 592
WIRE 544 672 544 560
WIRE 608 672 544 672
WIRE 928 672 896 672
WIRE 928 736 928 672
WIRE 960 736 960 704
WIRE 960 736 928 736
WIRE 1072 736 1072 640
WIRE 1072 736 960 736
WIRE 1184 736 1184 384
WIRE 1184 736 1072 736
WIRE 1296 736 1296 384
WIRE 1296 736 1184 736
WIRE 1424 736 1424 560
WIRE 1424 736 1296 736
FLAG 1488 304 0
SYMBOL voltage -48 272 R270
WINDOW 0 32 56 VTop 2
WINDOW 3 -32 56 VBottom 2
SYMATTR InstName V1
SYMATTR Value SINE(0 19.657569 60)
SYMATTR SpiceLine Rser=3.8
SYMBOL schottky -16 112 R270
WINDOW 0 32 32 VTop 2
WINDOW 3 0 32 VBottom 2
SYMATTR InstName D1
SYMATTR Value 1N5819
SYMATTR Description Diode
SYMATTR Type diode
SYMBOL schottky 48 544 R90
WINDOW 0 0 32 VBottom 2
WINDOW 3 32 32 VTop 2
SYMATTR InstName D2
SYMATTR Value 1N5819
SYMATTR Description Diode
SYMATTR Type diode
SYMBOL polcap 320 176 R0
WINDOW 3 24 56 Left 2
SYMATTR Value 3.3m
SYMATTR InstName C4
SYMATTR Description Capacitor
SYMATTR Type cap
SYMATTR SpiceLine V=332MRH Rser=23m Lser=0 mfg="Nichicon" pn="UPL1E332MRH6" type="Al electrolytic"
SYMBOL PowerProducts/LT1963A 752 48 R0
WINDOW 0 0 35 Center 2
WINDOW 3 -45 -36 Left 2
SYMATTR InstName U1
SYMBOL PowerProducts/LT3015 752 608 M180
SYMATTR InstName U2
SYMBOL res 944 384 R0
SYMATTR InstName R1
SYMATTR Value 13K
SYMBOL res 944 608 R0
SYMATTR InstName R2
SYMATTR Value 160k
SYMBOL res 944 144 R0
SYMATTR InstName R3
SYMATTR Value 13k
SYMBOL res 944 -80 R0
SYMATTR InstName R4
SYMATTR Value 150k
SYMBOL cap 464 400 R0
SYMATTR InstName C5
SYMATTR Value 100n
SYMBOL cap 464 176 R0
SYMATTR InstName C6
SYMATTR Value 100n
SYMBOL cap 1056 576 R0
SYMATTR InstName C7
SYMATTR Value 100n
SYMBOL cap 1056 16 R0
SYMATTR InstName C8
SYMATTR Value 100n
SYMBOL cap 1168 160 R0
SYMATTR InstName C9
SYMATTR Value 100n
SYMBOL cap 1168 320 R0
SYMATTR InstName C10
SYMATTR Value 100n
SYMBOL cap 1280 320 R0
SYMATTR InstName C11
SYMATTR Value 220µ
SYMBOL cap 1280 160 R0
SYMATTR InstName C12
SYMATTR Value 220µ
SYMBOL cap 48 352 R90
WINDOW 0 0 32 VBottom 2
WINDOW 3 32 32 VTop 2
SYMATTR InstName C13
SYMATTR Value 47n
SYMBOL potentiometer 976 496 M0
WINDOW 3 -243 40 Left 2
SYMATTR Value Rtot=20K wiper=0.6637
SYMATTR InstName U3
SYMBOL potentiometer 976 32 M0
WINDOW 3 -217 87 Left 2
SYMATTR Value Rtot=20K wiper=0.3104
SYMATTR InstName U4
SYMBOL res 1408 16 R0
SYMATTR InstName R9
SYMATTR Value 120
SYMBOL res 1408 464 R0
SYMATTR InstName R10
SYMATTR Value 120
SYMBOL polcap 320 400 R0
WINDOW 3 24 56 Left 2
SYMATTR Value 3.3m
SYMATTR InstName C1
SYMATTR Description Capacitor
SYMATTR Type cap
SYMATTR SpiceLine V=332MRH Rser=23m Lser=0 mfg="Nichicon" pn="UPL1E332MRH6" type="Al electrolytic"
TEXT 360 -168 Left 2 !.tran 0 10s\n;.ac oct 12 15 10Meg
TEXT -280 272 Left 2 ;WAU12-500
